Version 4
SHEET 1 1028 680
WIRE 208 32 112 32
WIRE 384 32 288 32
WIRE 112 80 112 32
WIRE 384 80 384 32
WIRE 112 224 112 160
WIRE 240 224 112 224
WIRE 384 224 384 144
WIRE 384 224 240 224
WIRE 240 256 240 224
FLAG 240 256 0
FLAG 112 32 in
FLAG 384 32 out
SYMBOL voltage 112 64 R0
WINDOW 3 1 217 Left 2
WINDOW 123 0 0 Left 0
WINDOW 39 0 0 Left 0
SYMATTR InstName V1
SYMATTR Value SINE(0 5 1Meg 0 0 0 5)
SYMBOL res 304 16 R90
WINDOW 0 0 56 VBottom 2
WINDOW 3 32 56 VTop 2
SYMATTR InstName R1
SYMATTR Value 1K
SYMBOL diode 368 80 R0
SYMATTR InstName D1
SYMATTR Value 1N4148
TEXT 112 312 Left 2 !.tran 0 3u 0 0.001u
TEXT -368 344 Left 2 !.model 1N4148 D(Is=2.52n Rs=.568 N=1.752 Cjo=4p M=.4 tt=20n Iave=200m Vpk=75 mfg=OnSemi type=silicon)
